Circuit: * C:\Users\usuario\137\Facultad\circuitos 2\Proyecto integrador\Checkpoint 1\4 Etapa lineal\Etapa lineal.asc


Date: Tue Mar 25 22:09:20 2025
Total elapsed time: 0.093 seconds.

tnom = 27
temp = 27
method = trap
totiter = 2043
traniter = 0
tranpoints = 0
accept = 0
rejected = 0
matrix size = 29
fillins = 24
solver = Normal
Matrix Compiler1: 3.49 KB object code size  0.8/0.4/[0.3]
Matrix Compiler2: 2.96 KB object code size  0.3/0.4/[0.2]

