Circuit: * C:\Users\usuario\137\Facultad\circuitos 2\TDCE\Etapa lineal.asc


vol1rl: v(vo)=0.000102358 at 6.6
vol2rl: v(vo)=0.000114382 at 7
reglin: ((vol2rl - vol1rl) / 0.4)=3.00608e-005


Date: Fri Mar 28 13:10:51 2025
Total elapsed time: 0.093 seconds.

tnom = 27
temp = 27
method = trap
totiter = 2108
traniter = 0
tranpoints = 0
accept = 0
rejected = 0
matrix size = 51
fillins = 39
solver = Normal
Matrix Compiler1: 6.19 KB object code size  1.6/0.9/[0.5]
Matrix Compiler2: 5.24 KB object code size  0.6/1.0/[0.4]

