Circuit: * C:\Users\usuario\137\Facultad\circuitos 2\TDCE\Etapa lineal.asc


vol1rl: v(vo)=4.99322 at 9.3
vol2rl: v(vo)=4.99323 at 9.7
reglin: ((vol2rl - vol1rl) / 0.4)=2.38419e-006


Date: Sun Mar 30 19:53:31 2025
Total elapsed time: 0.070 seconds.

tnom = 27
temp = 27
method = trap
totiter = 2054
traniter = 0
tranpoints = 0
accept = 0
rejected = 0
matrix size = 50
fillins = 58
solver = Normal
Matrix Compiler1: 7.20 KB object code size  1.3/1.3/[0.4]
Matrix Compiler2: 5.45 KB object code size  0.4/0.8/[0.3]

