Circuit: * C:\Users\usuario\137\Facultad\circuitos 2\Proyecto integrador\Checkpoint 1\7 Etapa lineal\Etapa lineal.asc


vol1rl: v(vo)=4.97935 at 6.6
vol2rl: v(vo)=4.97936 at 7
reglin: ((vol2rl - vol1rl) / 0.4)=8.34465e-006


Date: Wed Mar 26 19:55:43 2025
Total elapsed time: 0.193 seconds.

tnom = 27
temp = 27
method = trap
totiter = 2043
traniter = 0
tranpoints = 0
accept = 0
rejected = 0
matrix size = 38
fillins = 31
solver = Normal
Matrix Compiler1: 4.52 KB object code size  2.0/1.3/[0.9]
Matrix Compiler2: 3.92 KB object code size  0.9/1.4/[0.7]

