Circuit: * C:\Users\usuario\137\Facultad\circuitos 2\TDCE\Etapa lineal.asc


vol1rl: v(vo)=4.97814 at 9.3
vol2rl: v(vo)=4.97814 at 9.7
reglin: ((vol2rl - vol1rl) / 0.4)=1.43051e-005


Date: Tue Apr 01 13:07:05 2025
Total elapsed time: 0.071 seconds.

tnom = 27
temp = 27
method = trap
totiter = 2068
traniter = 0
tranpoints = 0
accept = 0
rejected = 0
matrix size = 60
fillins = 64
solver = Normal
Matrix Compiler1: 8.58 KB object code size  1.3/0.6/[0.3]
Matrix Compiler2: 6.57 KB object code size  0.4/0.6/[0.2]

