Circuit: * C:\Users\usuario\137\Facultad\circuitos 2\Proyecto integrador\Checkpoint 1\3 Etapa lineal\Etapa lineal.asc


Date: Tue Mar 25 21:36:30 2025
Total elapsed time: 0.056 seconds.

tnom = 27
temp = 27
method = trap
totiter = 2018
traniter = 0
tranpoints = 0
accept = 0
rejected = 0
matrix size = 21
fillins = 12
solver = Normal
Matrix Compiler1: 2.12 KB object code size  0.4/0.3/[0.2]
Matrix Compiler2: 2.02 KB object code size  0.2/0.3/[0.2]

