Circuit: * C:\Users\usuario\137\Facultad\circuitos 2\TDCE\Etapa lineal.asc

Direct Newton iteration for .op point succeeded.

Date: Thu Mar 27 21:56:48 2025
Total elapsed time: 0.065 seconds.

tnom = 27
temp = 27
method = trap
totiter = 7
traniter = 0
tranpoints = 0
accept = 0
rejected = 0
matrix size = 41
fillins = 31
solver = Normal
Matrix Compiler1:     253 opcodes
Matrix Compiler2: 4.11 KB object code size
