Circuit: * C:\Users\usuario\137\Facultad\circuitos 2\TDCE\Etapa lineal.asc


vpasomax: MAX(v(v_paso))=8.29545 FROM 0 TO 10
vimin: v(vi)=9.10814 at 9.10814
ldo: vimin - vpasomax=0.812685


Date: Tue Apr 01 09:40:08 2025
Total elapsed time: 0.074 seconds.

tnom = 27
temp = 27
method = trap
totiter = 2065
traniter = 0
tranpoints = 0
accept = 0
rejected = 0
matrix size = 50
fillins = 58
solver = Normal
Matrix Compiler1: 7.20 KB object code size  1.5/0.9/[0.4]
Matrix Compiler2: 5.45 KB object code size  0.6/1.0/[0.3]

