Circuit: * C:\Users\usuario\137\Facultad\circuitos 2\TDCE\Etapa lineal.asc

.step rs=0.1
.step rs=1


Measurement: voespmin
  step	v(vo)	at
     1	5.33784	6.6
     2	4.43907	6.6

Measurement: voespmed
  step	v(vo)	at
     1	5.33784	6.8
     2	4.59173	6.8

Measurement: voespmax
  step	v(vo)	at
     1	5.33784	7
     2	4.74448	7

Measurement: voerror
  step	((voespmin + voespmed + voespmax)/3 - 5)
     1	0.337842
     2	-0.408239


Date: Thu Mar 27 22:35:19 2025
Total elapsed time: 0.227 seconds.

tnom = 27
temp = 27
method = trap
totiter = 2059
traniter = 0
tranpoints = 0
accept = 0
rejected = 0
matrix size = 45
fillins = 46
solver = Normal
Matrix Compiler1: 5.92 KB object code size  2.5/1.0/[0.7]
Matrix Compiler2: 4.75 KB object code size  1.0/1.1/[0.6]

