Circuit: * C:\Users\usuario\137\Facultad\circuitos 2\TDCE\Etapa lineal.asc

Direct Newton iteration failed to find .op point.  (Use ".option noopiter" to skip.)
Starting Gmin stepping
Gmin = 10
Gmin = 1.07374
Gmin = 0.115292
Gmin = 0.0123794
Gmin = 0.00132923
Gmin = 0.000142725
Gmin = 1.5325e-005
Gmin = 1.6455e-006
Gmin = 1.76685e-007
Gmin = 1.89714e-008
Gmin = 2.03704e-009
Gmin = 2.18725e-010
Gmin = 2.34854e-011
Gmin = 2.52173e-012
Gmin = 2.70769e-013
Gmin = 0
Gmin stepping succeeded in finding the operating point.


efimin: MIN(-100*(v(vo)*i(rl))/(v(vi)*i(vi)))=50.6199 FROM 9.3 TO 9.7
efimax: MAX(-100*(v(vo)*i(rl))/(v(vi)*i(vi)))=52.7943 FROM 9.3 TO 9.7


Date: Fri Apr 04 21:31:45 2025
Total elapsed time: 0.197 seconds.

tnom = 27
temp = 27
method = trap
totiter = 2504
traniter = 0
tranpoints = 0
accept = 0
rejected = 0
matrix size = 62
fillins = 71
solver = Normal
Matrix Compiler1:     448 opcodes  2.1/1.7/[0.7]
Matrix Compiler2: 6.88 KB object code size  1.1/1.6/[0.5]

