Circuit: * C:\Users\usuario\137\Facultad\circuitos 2\Proyecto integrador\Checkpoint 1\2 Etapa lineal\Etapa lineal.asc


voesp: v(vo)=5.00524 at 6.8
voerror: (voesp - 5)=0.0052352


Date: Tue Mar 25 21:07:42 2025
Total elapsed time: 0.072 seconds.

tnom = 27
temp = 27
method = trap
totiter = 2027
traniter = 0
tranpoints = 0
accept = 0
rejected = 0
matrix size = 16
fillins = 8
solver = Normal
Matrix Compiler1:      90 opcodes  0.4/[0.1]/0.2
Matrix Compiler2: 1.51 KB object code size  0.2/0.2/[0.1]

