Circuit: * C:\Users\usuario\137\Facultad\circuitos 2\Proyecto integrador\Checkpoint 1\1 Etapa lineal\Etapa lineal.asc


vol1rl: v(vo)=4.73373 at 6.6
vol2rl: v(vo)=5.02748 at 7
reglin: ((vol2rl - vol1rl) / 0.4)=0.734385


Date: Wed Mar 26 19:51:19 2025
Total elapsed time: 0.250 seconds.

tnom = 27
temp = 27
method = trap
totiter = 2016
traniter = 0
tranpoints = 0
accept = 0
rejected = 0
matrix size = 12
fillins = 4
solver = Normal
Matrix Compiler1: 1.04 KB object code size  0.6/0.4/[0.3]
Matrix Compiler2: 1.06 KB object code size  0.3/0.6/[0.3]

