Circuit: * C:\Users\usuario\137\Facultad\circuitos 2\TDCE\Etapa lineal.asc


vol1rl: v(vo)=4.99377 at 6.6
vol2rl: v(vo)=4.99377 at 7
reglin: ((vol2rl - vol1rl) / 0.4)=-1.19209e-005


Date: Fri Mar 28 21:20:48 2025
Total elapsed time: 0.065 seconds.

tnom = 27
temp = 27
method = trap
totiter = 2071
traniter = 0
tranpoints = 0
accept = 0
rejected = 0
matrix size = 45
fillins = 46
solver = Normal
Matrix Compiler1: 5.99 KB object code size  0.9/0.5/[0.3]
Matrix Compiler2: 4.76 KB object code size  0.3/0.5/[0.2]

